LTspice 24.0.12 for Windows
Circuit: * D:\sem3\APL\A2\testcases\Draft1.asc
Start Time: Thu Jan 30 10:52:09 2025
solver = Normal
Maximum thread count: 24
tnom = 27
temp = 27
method = modified trap
Direct Newton iteration for .op point succeeded.
Total elapsed time: 0.298 seconds.

