LTspice 24.0.12 for Windows
Circuit: * D:\sem3\APL\A2\testcases\tc2_sim.asc
Start Time: Sat Aug 31 22:42:27 2024
solver = Normal
Maximum thread count: 24
tnom = 27
temp = 27
method = modified trap
Direct Newton iteration for .op point succeeded.
Total elapsed time: 0.154 seconds.

