LTspice 24.0.12 for Windows
Circuit: * D:\sem3\APL\A2\testcases\tc6.asc
Start Time: Sun Sep  1 00:57:51 2024
solver = Normal
Maximum thread count: 24
tnom = 27
temp = 27
method = modified trap
Fatal Error: Voltage source V2 and voltage source V1 are paralleled making an over-defined circuit matrix.
You will need to correct the circuit or add some series resistance.
